
! pal8 opt freq b3lyp 6-31G(d)

# claisen_ts_QRCF

* xyz 0 1
 C  -1.56584310   0.73334610  -0.31113370
 C  -1.29059370  -0.45088390   0.26549730
 O  -0.40659150  -1.33514620  -0.23288450
 C   1.14611610  -0.93967340   0.16020250
 C   1.36978850   0.42933060  -0.30232580
 C   0.77988430   1.45082070   0.34221670
 H  -2.24695090   1.43954550   0.15583870
 H  -1.20223800   0.96828930  -1.31375980
 H  -1.67192470  -0.66439710   1.27264540
 H   1.67997550  -1.73129690  -0.36178140
 H   1.18966540  -1.07168970   1.25225580
 H   1.69900280   0.56097630  -1.33142000
 H   0.69730660   2.44465560  -0.09116450
 H   0.43415730   1.35409650   1.37393050
*